output/CTMT/Cargas_BT_DU11_CTMT.dss
New "Load.BT_6425_M1" bus1="UC15168.1.4" phases=1 conn=delta model=2 kv=0.22 kw = 1583.5521721436933 pf=0.92 status=variable vmaxpu=1.5 vminpu=0.93 daily="RES_2_DU" 
New "Load.BT_6425_M2" bus1="UC15168.1.4" phases=1 conn=delta model=3 kv=0.22 kw = 1583.5521721436933 pf=0.92 status=variable vmaxpu=1.5 vminpu=0.93 daily="RES_2_DU"
 
New "Load.BT_7259_M1" bus1="UC15169.1.2.3.4" phases=3 conn=delta model=2 kv=0.38 kw = 1123.8112189406856 pf=0.92 status=variable vmaxpu=1.5 vminpu=0.93 daily="RES_2_DU" 
New "Load.BT_7259_M2" bus1="UC15169.1.2.3.4" phases=3 conn=delta model=3 kv=0.38 kw = 1123.8112189406856 pf=0.92 status=variable vmaxpu=1.5 vminpu=0.93 daily="RES_2_DU"
 
New "Load.BT_352_M1" bus1="UC15174.1.4" phases=1 conn=delta model=2 kv=0.22 kw = 1048.6766418360405 pf=0.92 status=variable vmaxpu=1.5 vminpu=0.93 daily="RES_10_DU" 
New "Load.BT_352_M2" bus1="UC15174.1.4" phases=1 conn=delta model=3 kv=0.22 kw = 1048.6766418360405 pf=0.92 status=variable vmaxpu=1.5 vminpu=0.93 daily="RES_10_DU"
 
New "Load.BT_2941_M1" bus1="UC13788.3.4" phases=1 conn=delta model=2 kv=0.22 kw = 684.5031969911448 pf=0.92 status=variable vmaxpu=1.5 vminpu=0.93 daily="RES_2_DU" 
New "Load.BT_2941_M2" bus1="UC13788.3.4" phases=1 conn=delta model=3 kv=0.22 kw = 684.5031969911448 pf=0.92 status=variable vmaxpu=1.5 vminpu=0.93 daily="RES_2_DU"
 
New "Load.BT_714_M1" bus1="UC15175.1.2.3.4" phases=3 conn=delta model=2 kv=0.38 kw = 1747.0156221714294 pf=0.92 status=variable vmaxpu=1.5 vminpu=0.93 daily="RES_2_DU" 
New "Load.BT_714_M2" bus1="UC15175.1.2.3.4" phases=3 conn=delta model=3 kv=0.38 kw = 1747.0156221714294 pf=0.92 status=variable vmaxpu=1.5 vminpu=0.93 daily="RES_2_DU"
 
New "Load.BT_7479_M1" bus1="ET1_159.2.3.4" phases=2 conn=delta model=2 kv=0.38 kw = 1121.3952956496462 pf=0.92 status=variable vmaxpu=1.5 vminpu=0.93 daily="RES_3_DU" 
New "Load.BT_7479_M2" bus1="ET1_159.2.3.4" phases=2 conn=delta model=3 kv=0.38 kw = 1121.3952956496462 pf=0.92 status=variable vmaxpu=1.5 vminpu=0.93 daily="RES_3_DU"
 
New "Load.BT_7575_M1" bus1="UC15178.3.4" phases=1 conn=delta model=2 kv=0.22 kw = 1464.0000014006503 pf=0.92 status=variable vmaxpu=1.5 vminpu=0.93 daily="RES_1_DU" 
New "Load.BT_7575_M2" bus1="UC15178.3.4" phases=1 conn=delta model=3 kv=0.22 kw = 1464.0000014006503 pf=0.92 status=variable vmaxpu=1.5 vminpu=0.93 daily="RES_1_DU"
 
New "Load.BT_6438_M1" bus1="UC15180.1.4" phases=1 conn=delta model=2 kv=0.22 kw = 735.5855251248124 pf=0.92 status=variable vmaxpu=1.5 vminpu=0.93 daily="RES_2_DU" 
New "Load.BT_6438_M2" bus1="UC15180.1.4" phases=1 conn=delta model=3 kv=0.22 kw = 735.5855251248124 pf=0.92 status=variable vmaxpu=1.5 vminpu=0.93 daily="RES_2_DU"
 
New "Load.BT_387_M1" bus1="UC15581.1.2.3.4" phases=3 conn=delta model=2 kv=0.38 kw = 807.8297864395556 pf=0.92 status=variable vmaxpu=1.5 vminpu=0.93 daily="RES_3_DU" 
New "Load.BT_387_M2" bus1="UC15581.1.2.3.4" phases=3 conn=delta model=3 kv=0.38 kw = 807.8297864395556 pf=0.92 status=variable vmaxpu=1.5 vminpu=0.93 daily="RES_3_DU"
 
New "Load.BT_7928_M1" bus1="UC15838.3.4" phases=1 conn=delta model=2 kv=0.22 kw = 0.0 pf=0.92 status=variable vmaxpu=1.5 vminpu=0.93 daily="RES_7_DU" 
New "Load.BT_7928_M2" bus1="UC15838.3.4" phases=1 conn=delta model=3 kv=0.22 kw = 0.0 pf=0.92 status=variable vmaxpu=1.5 vminpu=0.93 daily="RES_7_DU"
 
New "Load.BT_8263_M1" bus1="UC14653.1.2.3.4" phases=3 conn=delta model=2 kv=0.38 kw = 47.8320268286579 pf=0.92 status=variable vmaxpu=1.5 vminpu=0.93 daily="RES_3_DU" 
New "Load.BT_8263_M2" bus1="UC14653.1.2.3.4" phases=3 conn=delta model=3 kv=0.38 kw = 47.8320268286579 pf=0.92 status=variable vmaxpu=1.5 vminpu=0.93 daily="RES_3_DU"
 
New "Load.BT_7436_M1" bus1="UC10919.3.4" phases=1 conn=delta model=2 kv=0.22 kw = 1169.2273224783041 pf=0.92 status=variable vmaxpu=1.5 vminpu=0.93 daily="RES_3_DU" 
New "Load.BT_7436_M2" bus1="UC10919.3.4" phases=1 conn=delta model=3 kv=0.22 kw = 1169.2273224783041 pf=0.92 status=variable vmaxpu=1.5 vminpu=0.93 daily="RES_3_DU"
 
New "Load.BT_2214_M1" bus1="UC16152.1.4" phases=1 conn=delta model=2 kv=0.22 kw = 0.0 pf=0.92 status=variable vmaxpu=1.5 vminpu=0.93 daily="RES_7_DU" 
New "Load.BT_2214_M2" bus1="UC16152.1.4" phases=1 conn=delta model=3 kv=0.22 kw = 0.0 pf=0.92 status=variable vmaxpu=1.5 vminpu=0.93 daily="RES_7_DU"
 
New "Load.BT_2922_M1" bus1="UC2530.1.4" phases=1 conn=delta model=2 kv=0.22 kw = 441.11758075317834 pf=0.92 status=variable vmaxpu=1.5 vminpu=0.93 daily="RES_3_DU" 
New "Load.BT_2922_M2" bus1="UC2530.1.4" phases=1 conn=delta model=3 kv=0.22 kw = 441.11758075317834 pf=0.92 status=variable vmaxpu=1.5 vminpu=0.93 daily="RES_3_DU"
 
New "Load.BT_8626_M1" bus1="UC16140.1.2.3.4" phases=3 conn=delta model=2 kv=0.38 kw = 9826.824178465384 pf=0.92 status=variable vmaxpu=1.5 vminpu=0.93 daily="RES_3_DU" 
New "Load.BT_8626_M2" bus1="UC16140.1.2.3.4" phases=3 conn=delta model=3 kv=0.38 kw = 9826.824178465384 pf=0.92 status=variable vmaxpu=1.5 vminpu=0.93 daily="RES_3_DU"
 
New "Load.BT_288_M1" bus1="UC16156.3.4" phases=1 conn=delta model=2 kv=0.22 kw = 6.630439442706893 pf=0.92 status=variable vmaxpu=1.5 vminpu=0.93 daily="RES_7_DU" 
New "Load.BT_288_M2" bus1="UC16156.3.4" phases=1 conn=delta model=3 kv=0.22 kw = 6.630439442706893 pf=0.92 status=variable vmaxpu=1.5 vminpu=0.93 daily="RES_7_DU"
 
New "Load.BT_715_M1" bus1="UC16132.3.4" phases=1 conn=delta model=2 kv=0.22 kw = 79.30822951975406 pf=0.92 status=variable vmaxpu=1.5 vminpu=0.93 daily="COM_5_DU" 
New "Load.BT_715_M2" bus1="UC16132.3.4" phases=1 conn=delta model=3 kv=0.22 kw = 79.30822951975406 pf=0.92 status=variable vmaxpu=1.5 vminpu=0.93 daily="COM_5_DU"
 
New "Load.BT_1454_M1" bus1="UC8216.3.4" phases=1 conn=delta model=2 kv=0.22 kw = 1775.099662307971 pf=0.92 status=variable vmaxpu=1.5 vminpu=0.93 daily="RES_3_DU" 
New "Load.BT_1454_M2" bus1="UC8216.3.4" phases=1 conn=delta model=3 kv=0.22 kw = 1775.099662307971 pf=0.92 status=variable vmaxpu=1.5 vminpu=0.93 daily="RES_3_DU"
 
New "Load.BT_1169_M1" bus1="UC16139.2.4" phases=1 conn=delta model=2 kv=0.22 kw = 983.2138848113013 pf=0.92 status=variable vmaxpu=1.5 vminpu=0.93 daily="RES_3_DU" 
New "Load.BT_1169_M2" bus1="UC16139.2.4" phases=1 conn=delta model=3 kv=0.22 kw = 983.2138848113013 pf=0.92 status=variable vmaxpu=1.5 vminpu=0.93 daily="RES_3_DU"
 
New "Load.BT_2362_M1" bus1="UC16135.3.4" phases=1 conn=delta model=2 kv=0.22 kw = 605.8723398296667 pf=0.92 status=variable vmaxpu=1.5 vminpu=0.93 daily="RES_3_DU" 
New "Load.BT_2362_M2" bus1="UC16135.3.4" phases=1 conn=delta model=3 kv=0.22 kw = 605.8723398296667 pf=0.92 status=variable vmaxpu=1.5 vminpu=0.93 daily="RES_3_DU"
 
New "Load.BT_7328_M1" bus1="UC16138.3.4" phases=1 conn=delta model=2 kv=0.22 kw = 79.30822951975406 pf=0.92 status=variable vmaxpu=1.5 vminpu=0.93 daily="COM_5_DU" 
New "Load.BT_7328_M2" bus1="UC16138.3.4" phases=1 conn=delta model=3 kv=0.22 kw = 79.30822951975406 pf=0.92 status=variable vmaxpu=1.5 vminpu=0.93 daily="COM_5_DU"
 
New "Load.BT_1673_M1" bus1="UC8555.3.4" phases=1 conn=delta model=2 kv=0.22 kw = 1318.0380726119065 pf=0.92 status=variable vmaxpu=1.5 vminpu=0.93 daily="RES_3_DU" 
New "Load.BT_1673_M2" bus1="UC8555.3.4" phases=1 conn=delta model=3 kv=0.22 kw = 1318.0380726119065 pf=0.92 status=variable vmaxpu=1.5 vminpu=0.93 daily="RES_3_DU"
 
New "Load.BT_1124_M1" bus1="UC15362.2.3.4" phases=2 conn=delta model=2 kv=0.38 kw = 6.630439442706893 pf=0.92 status=variable vmaxpu=1.5 vminpu=0.93 daily="RES_7_DU" 
New "Load.BT_1124_M2" bus1="UC15362.2.3.4" phases=2 conn=delta model=3 kv=0.38 kw = 6.630439442706893 pf=0.92 status=variable vmaxpu=1.5 vminpu=0.93 daily="RES_7_DU"
 
New "Load.BT_84_M1" bus1="UC5102.1.4" phases=1 conn=delta model=2 kv=0.22 kw = 770.627098906155 pf=0.92 status=variable vmaxpu=1.5 vminpu=0.93 daily="RES_3_DU" 
New "Load.BT_84_M2" bus1="UC5102.1.4" phases=1 conn=delta model=3 kv=0.22 kw = 770.627098906155 pf=0.92 status=variable vmaxpu=1.5 vminpu=0.93 daily="RES_3_DU"
 
New "Load.BT_1414_M1" bus1="UC7753.1.4" phases=1 conn=delta model=2 kv=0.22 kw = 139.95569915250718 pf=0.92 status=variable vmaxpu=1.5 vminpu=0.93 daily="COM_5_DU" 
New "Load.BT_1414_M2" bus1="UC7753.1.4" phases=1 conn=delta model=3 kv=0.22 kw = 139.95569915250718 pf=0.92 status=variable vmaxpu=1.5 vminpu=0.93 daily="COM_5_DU"
 
New "Load.BT_6437_M1" bus1="UC12439.3.4" phases=1 conn=delta model=2 kv=0.22 kw = 334.8241878006053 pf=0.92 status=variable vmaxpu=1.5 vminpu=0.93 daily="RES_3_DU" 
New "Load.BT_6437_M2" bus1="UC12439.3.4" phases=1 conn=delta model=3 kv=0.22 kw = 334.8241878006053 pf=0.92 status=variable vmaxpu=1.5 vminpu=0.93 daily="RES_3_DU"
 
New "Load.BT_2368_M1" bus1="UC9732.1.4" phases=1 conn=delta model=2 kv=0.22 kw = 173.6799156544696 pf=0.92 status=variable vmaxpu=1.5 vminpu=0.93 daily="RES_2_DU" 
New "Load.BT_2368_M2" bus1="UC9732.1.4" phases=1 conn=delta model=3 kv=0.22 kw = 173.6799156544696 pf=0.92 status=variable vmaxpu=1.5 vminpu=0.93 daily="RES_2_DU"
 
New "Load.BT_491_M1" bus1="UC1855.1.4" phases=1 conn=delta model=2 kv=0.22 kw = 863.2913454589813 pf=0.92 status=variable vmaxpu=1.5 vminpu=0.93 daily="RES_2_DU" 
New "Load.BT_491_M2" bus1="UC1855.1.4" phases=1 conn=delta model=3 kv=0.22 kw = 863.2913454589813 pf=0.92 status=variable vmaxpu=1.5 vminpu=0.93 daily="RES_2_DU"
 
New "Load.BT_1491_M1" bus1="UC1136.2.4" phases=1 conn=delta model=2 kv=0.22 kw = 735.9787781404651 pf=0.92 status=variable vmaxpu=1.5 vminpu=0.93 daily="RES_7_DU" 
New "Load.BT_1491_M2" bus1="UC1136.2.4" phases=1 conn=delta model=3 kv=0.22 kw = 735.9787781404651 pf=0.92 status=variable vmaxpu=1.5 vminpu=0.93 daily="RES_7_DU"
 
New "Load.BT_2368_M1" bus1="UC9732.2.4" phases=1 conn=delta model=2 kv=0.22 kw = 209.1483410912254 pf=0.92 status=variable vmaxpu=1.5 vminpu=0.93 daily="RES_9_DU" 
New "Load.BT_2368_M2" bus1="UC9732.2.4" phases=1 conn=delta model=3 kv=0.22 kw = 209.1483410912254 pf=0.92 status=variable vmaxpu=1.5 vminpu=0.93 daily="RES_9_DU"
 
New "Load.BT_8141_M1" bus1="UC15851.3.4" phases=1 conn=delta model=2 kv=0.22 kw = 159.13054662496543 pf=0.92 status=variable vmaxpu=1.5 vminpu=0.93 daily="RES_7_DU" 
New "Load.BT_8141_M2" bus1="UC15851.3.4" phases=1 conn=delta model=3 kv=0.22 kw = 159.13054662496543 pf=0.92 status=variable vmaxpu=1.5 vminpu=0.93 daily="RES_7_DU"
 
New "Load.BT_7354_M1" bus1="UC15850.3.1.4" phases=2 conn=delta model=2 kv=0.38 kw = 32.89887643596967 pf=0.92 status=variable vmaxpu=1.5 vminpu=0.93 daily="RES_1_DU" 
New "Load.BT_7354_M2" bus1="UC15850.3.1.4" phases=2 conn=delta model=3 kv=0.38 kw = 32.89887643596967 pf=0.92 status=variable vmaxpu=1.5 vminpu=0.93 daily="RES_1_DU"
 
New "Load.BT_918_M1" bus1="UC15688.1.4" phases=1 conn=delta model=2 kv=0.22 kw = 26.57334823814328 pf=0.92 status=variable vmaxpu=1.5 vminpu=0.93 daily="RES_3_DU" 
New "Load.BT_918_M2" bus1="UC15688.1.4" phases=1 conn=delta model=3 kv=0.22 kw = 26.57334823814328 pf=0.92 status=variable vmaxpu=1.5 vminpu=0.93 daily="RES_3_DU"
 
New "Load.BT_2932_M1" bus1="UC10153.2.4" phases=1 conn=delta model=2 kv=0.22 kw = 1328.667411907164 pf=0.92 status=variable vmaxpu=1.5 vminpu=0.93 daily="RES_3_DU" 
New "Load.BT_2932_M2" bus1="UC10153.2.4" phases=1 conn=delta model=3 kv=0.22 kw = 1328.667411907164 pf=0.92 status=variable vmaxpu=1.5 vminpu=0.93 daily="RES_3_DU"
 
New "Load.BT_6949_M1" bus1="UC15497.1.4" phases=1 conn=delta model=2 kv=0.22 kw = 1363.898161168923 pf=0.92 status=variable vmaxpu=1.5 vminpu=0.93 daily="RES_2_DU" 
New "Load.BT_6949_M2" bus1="UC15497.1.4" phases=1 conn=delta model=3 kv=0.22 kw = 1363.898161168923 pf=0.92 status=variable vmaxpu=1.5 vminpu=0.93 daily="RES_2_DU"
 
New "Load.BT_6949_M1" bus1="UC15497.3.4" phases=1 conn=delta model=2 kv=0.22 kw = 122.59758752080207 pf=0.92 status=variable vmaxpu=1.5 vminpu=0.93 daily="RES_2_DU" 
New "Load.BT_6949_M2" bus1="UC15497.3.4" phases=1 conn=delta model=3 kv=0.22 kw = 122.59758752080207 pf=0.92 status=variable vmaxpu=1.5 vminpu=0.93 daily="RES_2_DU"
 
New "Load.BT_1531_M1" bus1="UC5544.2.4" phases=1 conn=delta model=2 kv=0.22 kw = 1103.3782876872185 pf=0.92 status=variable vmaxpu=1.5 vminpu=0.93 daily="RES_2_DU" 
New "Load.BT_1531_M2" bus1="UC5544.2.4" phases=1 conn=delta model=3 kv=0.22 kw = 1103.3782876872185 pf=0.92 status=variable vmaxpu=1.5 vminpu=0.93 daily="RES_2_DU"
 
New "Load.BT_293_M1" bus1="UC15499.3.4" phases=1 conn=delta model=2 kv=0.22 kw = 618.096170417377 pf=0.92 status=variable vmaxpu=1.5 vminpu=0.93 daily="RES_2_DU" 
New "Load.BT_293_M2" bus1="UC15499.3.4" phases=1 conn=delta model=3 kv=0.22 kw = 618.096170417377 pf=0.92 status=variable vmaxpu=1.5 vminpu=0.93 daily="RES_2_DU"
 
New "Load.BT_1432_M1" bus1="UC8603.1.2.3.4" phases=3 conn=delta model=2 kv=0.38 kw = 1372.8668740994583 pf=0.92 status=variable vmaxpu=1.5 vminpu=0.93 daily="COM_1_DU" 
New "Load.BT_1432_M2" bus1="UC8603.1.2.3.4" phases=3 conn=delta model=3 kv=0.38 kw = 1372.8668740994583 pf=0.92 status=variable vmaxpu=1.5 vminpu=0.93 daily="COM_1_DU"
 
New "Load.BT_8049_M1" bus1="UC15509.1.2.4" phases=2 conn=delta model=2 kv=0.38 kw = 61.29879376040103 pf=0.92 status=variable vmaxpu=1.5 vminpu=0.93 daily="RES_2_DU" 
New "Load.BT_8049_M2" bus1="UC15509.1.2.4" phases=2 conn=delta model=3 kv=0.38 kw = 61.29879376040103 pf=0.92 status=variable vmaxpu=1.5 vminpu=0.93 daily="RES_2_DU"
 
New "Load.BT_2623_M1" bus1="UC15510.1.2.3.4" phases=3 conn=delta model=2 kv=0.38 kw = 976.1842345983586 pf=0.92 status=variable vmaxpu=1.5 vminpu=0.93 daily="COM_1_DU" 
New "Load.BT_2623_M2" bus1="UC15510.1.2.3.4" phases=3 conn=delta model=3 kv=0.38 kw = 976.1842345983586 pf=0.92 status=variable vmaxpu=1.5 vminpu=0.93 daily="COM_1_DU"
 
New "Load.BT_3013_M1" bus1="UC6671.1.4" phases=1 conn=delta model=2 kv=0.22 kw = 423.9833235094405 pf=0.92 status=variable vmaxpu=1.5 vminpu=0.93 daily="RES_2_DU" 
New "Load.BT_3013_M2" bus1="UC6671.1.4" phases=1 conn=delta model=3 kv=0.22 kw = 423.9833235094405 pf=0.92 status=variable vmaxpu=1.5 vminpu=0.93 daily="RES_2_DU"
 
New "Load.BT_6930_M1" bus1="UC9626.3.4" phases=1 conn=delta model=2 kv=0.22 kw = 812.2090173253137 pf=0.92 status=variable vmaxpu=1.5 vminpu=0.93 daily="RES_2_DU" 
New "Load.BT_6930_M2" bus1="UC9626.3.4" phases=1 conn=delta model=3 kv=0.22 kw = 812.2090173253137 pf=0.92 status=variable vmaxpu=1.5 vminpu=0.93 daily="RES_2_DU"
 
New "Load.BT_2941_M1" bus1="UC13002.3.4" phases=1 conn=delta model=2 kv=0.22 kw = 100.03301343940777 pf=0.92 status=variable vmaxpu=1.5 vminpu=0.93 daily="COM_1_DU" 
New "Load.BT_2941_M2" bus1="UC13002.3.4" phases=1 conn=delta model=3 kv=0.22 kw = 100.03301343940777 pf=0.92 status=variable vmaxpu=1.5 vminpu=0.93 daily="COM_1_DU"
 
New "Load.BT_7308_M1" bus1="UC13331.1.4" phases=1 conn=delta model=2 kv=0.22 kw = 40.86586250693402 pf=0.92 status=variable vmaxpu=1.5 vminpu=0.93 daily="RES_2_DU" 
New "Load.BT_7308_M2" bus1="UC13331.1.4" phases=1 conn=delta model=3 kv=0.22 kw = 40.86586250693402 pf=0.92 status=variable vmaxpu=1.5 vminpu=0.93 daily="RES_2_DU"
 
New "Load.BT_3010_M1" bus1="UC14890.1.2.3.4" phases=3 conn=delta model=2 kv=0.38 kw = 459.74095320300773 pf=0.92 status=variable vmaxpu=1.5 vminpu=0.93 daily="RES_2_DU" 
New "Load.BT_3010_M2" bus1="UC14890.1.2.3.4" phases=3 conn=delta model=3 kv=0.38 kw = 459.74095320300773 pf=0.92 status=variable vmaxpu=1.5 vminpu=0.93 daily="RES_2_DU"
 
New "Load.BT_3010_M1" bus1="UC14890.1.2.3.4" phases=3 conn=delta model=2 kv=0.38 kw = 567.0138422837096 pf=0.92 status=variable vmaxpu=1.5 vminpu=0.93 daily="RES_2_DU" 
New "Load.BT_3010_M2" bus1="UC14890.1.2.3.4" phases=3 conn=delta model=3 kv=0.38 kw = 567.0138422837096 pf=0.92 status=variable vmaxpu=1.5 vminpu=0.93 daily="RES_2_DU"
 
New "Load.BT_1267_M1" bus1="UC15137.1.2.3.4" phases=3 conn=delta model=2 kv=0.38 kw = 7535.24544339263 pf=0.92 status=variable vmaxpu=1.5 vminpu=0.93 daily="IND_1_DU" 
New "Load.BT_1267_M2" bus1="UC15137.1.2.3.4" phases=3 conn=delta model=3 kv=0.38 kw = 7535.24544339263 pf=0.92 status=variable vmaxpu=1.5 vminpu=0.93 daily="IND_1_DU"
 
New "Load.BT_1115_M1" bus1="UC7113.1.4" phases=1 conn=delta model=2 kv=0.22 kw = 791.7760860718466 pf=0.92 status=variable vmaxpu=1.5 vminpu=0.93 daily="RES_2_DU" 
New "Load.BT_1115_M2" bus1="UC7113.1.4" phases=1 conn=delta model=3 kv=0.22 kw = 791.7760860718466 pf=0.92 status=variable vmaxpu=1.5 vminpu=0.93 daily="RES_2_DU"
 
New "Load.BT_7226_M1" bus1="UC9718.1.4" phases=1 conn=delta model=2 kv=0.22 kw = 326.9269000554722 pf=0.92 status=variable vmaxpu=1.5 vminpu=0.93 daily="RES_2_DU" 
New "Load.BT_7226_M2" bus1="UC9718.1.4" phases=1 conn=delta model=3 kv=0.22 kw = 326.9269000554722 pf=0.92 status=variable vmaxpu=1.5 vminpu=0.93 daily="RES_2_DU"
 
New "Load.BT_7764_M1" bus1="UC10594.3.1.4" phases=2 conn=delta model=2 kv=0.38 kw = 507.7185064195085 pf=0.92 status=variable vmaxpu=1.5 vminpu=0.93 daily="RES_11_DU" 
New "Load.BT_7764_M2" bus1="UC10594.3.1.4" phases=2 conn=delta model=3 kv=0.38 kw = 507.7185064195085 pf=0.92 status=variable vmaxpu=1.5 vminpu=0.93 daily="RES_11_DU"
 
New "Load.BT_1983_M1" bus1="UC15149.1.2.4" phases=2 conn=delta model=2 kv=0.38 kw = 694.7196626178784 pf=0.92 status=variable vmaxpu=1.5 vminpu=0.93 daily="RES_2_DU" 
New "Load.BT_1983_M2" bus1="UC15149.1.2.4" phases=2 conn=delta model=3 kv=0.38 kw = 694.7196626178784 pf=0.92 status=variable vmaxpu=1.5 vminpu=0.93 daily="RES_2_DU"
 
New "Load.BT_6423_M1" bus1="UC13667.1.2.3.4" phases=3 conn=delta model=2 kv=0.38 kw = 1259.7834941143096 pf=0.92 status=variable vmaxpu=1.5 vminpu=0.93 daily="RES_7_DU" 
New "Load.BT_6423_M2" bus1="UC13667.1.2.3.4" phases=3 conn=delta model=3 kv=0.38 kw = 1259.7834941143096 pf=0.92 status=variable vmaxpu=1.5 vminpu=0.93 daily="RES_7_DU"
 
New "Load.BT_6614_M1" bus1="UC15154.3.4" phases=1 conn=delta model=2 kv=0.22 kw = 1376.2696642380645 pf=0.92 status=variable vmaxpu=1.5 vminpu=0.93 daily="RES_1_DU" 
New "Load.BT_6614_M2" bus1="UC15154.3.4" phases=1 conn=delta model=3 kv=0.22 kw = 1376.2696642380645 pf=0.92 status=variable vmaxpu=1.5 vminpu=0.93 daily="RES_1_DU"
 
New "Load.BT_8374_M1" bus1="UC15150.1.2.3.4" phases=3 conn=delta model=2 kv=0.38 kw = 1139.135917380786 pf=0.92 status=variable vmaxpu=1.5 vminpu=0.93 daily="RES_2_DU" 
New "Load.BT_8374_M2" bus1="UC15150.1.2.3.4" phases=3 conn=delta model=3 kv=0.38 kw = 1139.135917380786 pf=0.92 status=variable vmaxpu=1.5 vminpu=0.93 daily="RES_2_DU"
 
New "Load.BT_3034_M1" bus1="UC14783.1.2.3.4" phases=3 conn=delta model=2 kv=0.38 kw = 316.71043442873867 pf=0.92 status=variable vmaxpu=1.5 vminpu=0.93 daily="RES_2_DU" 
New "Load.BT_3034_M2" bus1="UC14783.1.2.3.4" phases=3 conn=delta model=3 kv=0.38 kw = 316.71043442873867 pf=0.92 status=variable vmaxpu=1.5 vminpu=0.93 daily="RES_2_DU"
 
New "Load.BT_1488_M1" bus1="UC10551.2.4" phases=1 conn=delta model=2 kv=0.22 kw = 534.8485029457418 pf=0.92 status=variable vmaxpu=1.5 vminpu=0.93 daily="RES_11_DU" 
New "Load.BT_1488_M2" bus1="UC10551.2.4" phases=1 conn=delta model=3 kv=0.22 kw = 534.8485029457418 pf=0.92 status=variable vmaxpu=1.5 vminpu=0.93 daily="RES_11_DU"
 
New "Load.BT_927_M1" bus1="UC15130.3.4" phases=1 conn=delta model=2 kv=0.22 kw = 46.56709246317258 pf=0.92 status=variable vmaxpu=1.5 vminpu=0.93 daily="COM_1_DU" 
New "Load.BT_927_M2" bus1="UC15130.3.4" phases=1 conn=delta model=3 kv=0.22 kw = 46.56709246317258 pf=0.92 status=variable vmaxpu=1.5 vminpu=0.93 daily="COM_1_DU"
 
New "Load.BT_15_M1" bus1="UC11345.3.4" phases=1 conn=delta model=2 kv=0.22 kw = 294.2564433405036 pf=0.92 status=variable vmaxpu=1.5 vminpu=0.93 daily="RES_8_DU" 
New "Load.BT_15_M2" bus1="UC11345.3.4" phases=1 conn=delta model=3 kv=0.22 kw = 294.2564433405036 pf=0.92 status=variable vmaxpu=1.5 vminpu=0.93 daily="RES_8_DU"
 
New "Load.BT_6637_M1" bus1="UC1871.2.4" phases=1 conn=delta model=2 kv=0.22 kw = 687.5351959228308 pf=0.92 status=variable vmaxpu=1.5 vminpu=0.93 daily="RES_13_DU" 
New "Load.BT_6637_M2" bus1="UC1871.2.4" phases=1 conn=delta model=3 kv=0.22 kw = 687.5351959228308 pf=0.92 status=variable vmaxpu=1.5 vminpu=0.93 daily="RES_13_DU"
 
New "Load.BT_387_M1" bus1="UC15581.1.2.3.4" phases=3 conn=delta model=2 kv=0.38 kw = 961.9552062207866 pf=0.92 status=variable vmaxpu=1.5 vminpu=0.93 daily="RES_3_DU" 
New "Load.BT_387_M2" bus1="UC15581.1.2.3.4" phases=3 conn=delta model=3 kv=0.38 kw = 961.9552062207866 pf=0.92 status=variable vmaxpu=1.5 vminpu=0.93 daily="RES_3_DU"
 
New "Load.BT_8263_M1" bus1="UC14653.1.2.3.4" phases=3 conn=delta model=2 kv=0.38 kw = 1886.7077249081726 pf=0.92 status=variable vmaxpu=1.5 vminpu=0.93 daily="RES_3_DU" 
New "Load.BT_8263_M2" bus1="UC14653.1.2.3.4" phases=3 conn=delta model=3 kv=0.38 kw = 1886.7077249081726 pf=0.92 status=variable vmaxpu=1.5 vminpu=0.93 daily="RES_3_DU"
 
New "Load.BT_1454_M1" bus1="UC8216.3.4" phases=1 conn=delta model=2 kv=0.22 kw = 616.501679124924 pf=0.92 status=variable vmaxpu=1.5 vminpu=0.93 daily="RES_3_DU" 
New "Load.BT_1454_M2" bus1="UC8216.3.4" phases=1 conn=delta model=3 kv=0.22 kw = 616.501679124924 pf=0.92 status=variable vmaxpu=1.5 vminpu=0.93 daily="RES_3_DU"
 
New "Load.BT_1314_M1" bus1="UC16125.1.2.3.4" phases=3 conn=delta model=2 kv=0.38 kw = 26.521757770827573 pf=0.92 status=variable vmaxpu=1.5 vminpu=0.93 daily="RES_7_DU" 
New "Load.BT_1314_M2" bus1="UC16125.1.2.3.4" phases=3 conn=delta model=3 kv=0.38 kw = 26.521757770827573 pf=0.92 status=variable vmaxpu=1.5 vminpu=0.93 daily="RES_7_DU"
 
New "Load.BT_8044_M1" bus1="UC16120.1.2.3.4" phases=3 conn=delta model=2 kv=0.38 kw = 9778.992151636727 pf=0.92 status=variable vmaxpu=1.5 vminpu=0.93 daily="RES_3_DU" 
New "Load.BT_8044_M2" bus1="UC16120.1.2.3.4" phases=3 conn=delta model=3 kv=0.38 kw = 9778.992151636727 pf=0.92 status=variable vmaxpu=1.5 vminpu=0.93 daily="RES_3_DU"
 
New "Load.BT_6919_M1" bus1="UC16117.1.4" phases=1 conn=delta model=2 kv=0.22 kw = 1424.3314655644797 pf=0.92 status=variable vmaxpu=1.5 vminpu=0.93 daily="RES_3_DU" 
New "Load.BT_6919_M2" bus1="UC16117.1.4" phases=1 conn=delta model=3 kv=0.22 kw = 1424.3314655644797 pf=0.92 status=variable vmaxpu=1.5 vminpu=0.93 daily="RES_3_DU"
 
New "Load.BT_1445_M1" bus1="UC2901.2.4" phases=1 conn=delta model=2 kv=0.22 kw = 919.4378490397575 pf=0.92 status=variable vmaxpu=1.5 vminpu=0.93 daily="RES_3_DU" 
New "Load.BT_1445_M2" bus1="UC2901.2.4" phases=1 conn=delta model=3 kv=0.22 kw = 919.4378490397575 pf=0.92 status=variable vmaxpu=1.5 vminpu=0.93 daily="RES_3_DU"
 
New "Load.BT_3107_M1" bus1="UC8431.2.4" phases=1 conn=delta model=2 kv=0.22 kw = 1355.2407601453071 pf=0.92 status=variable vmaxpu=1.5 vminpu=0.93 daily="RES_3_DU" 
New "Load.BT_3107_M2" bus1="UC8431.2.4" phases=1 conn=delta model=3 kv=0.22 kw = 1355.2407601453071 pf=0.92 status=variable vmaxpu=1.5 vminpu=0.93 daily="RES_3_DU"
 
New "Load.BT_8422_M1" bus1="UC16128.1.4" phases=1 conn=delta model=2 kv=0.22 kw = 106.0870310833103 pf=0.92 status=variable vmaxpu=1.5 vminpu=0.93 daily="RES_7_DU" 
New "Load.BT_8422_M2" bus1="UC16128.1.4" phases=1 conn=delta model=3 kv=0.22 kw = 106.0870310833103 pf=0.92 status=variable vmaxpu=1.5 vminpu=0.93 daily="RES_7_DU"
 
New "Load.BT_8514_M1" bus1="UC15685.1.2.3.4" phases=3 conn=delta model=2 kv=0.38 kw = 439.800317707741 pf=0.92 status=variable vmaxpu=1.5 vminpu=0.93 daily="COM_1_DU" 
New "Load.BT_8514_M2" bus1="UC15685.1.2.3.4" phases=3 conn=delta model=3 kv=0.38 kw = 439.800317707741 pf=0.92 status=variable vmaxpu=1.5 vminpu=0.93 daily="COM_1_DU"
 
New "Load.BT_2932_M1" bus1="UC10153.2.4" phases=1 conn=delta model=2 kv=0.22 kw = 684.5031969911448 pf=0.92 status=variable vmaxpu=1.5 vminpu=0.93 daily="RES_2_DU" 
New "Load.BT_2932_M2" bus1="UC10153.2.4" phases=1 conn=delta model=3 kv=0.22 kw = 684.5031969911448 pf=0.92 status=variable vmaxpu=1.5 vminpu=0.93 daily="RES_2_DU"
 
New "Load.BT_7928_M1" bus1="UC15838.2.4" phases=1 conn=delta model=2 kv=0.22 kw = 0.0 pf=0.92 status=variable vmaxpu=1.5 vminpu=0.93 daily="RES_2_DU" 
New "Load.BT_7928_M2" bus1="UC15838.2.4" phases=1 conn=delta model=3 kv=0.22 kw = 0.0 pf=0.92 status=variable vmaxpu=1.5 vminpu=0.93 daily="RES_2_DU"
 
New "Load.BT_7378_M1" bus1="UC15839.2.3.4" phases=2 conn=delta model=2 kv=0.38 kw = 41.34327672733526 pf=0.92 status=variable vmaxpu=1.5 vminpu=0.93 daily="RES_9_DU" 
New "Load.BT_7378_M2" bus1="UC15839.2.3.4" phases=2 conn=delta model=3 kv=0.38 kw = 41.34327672733526 pf=0.92 status=variable vmaxpu=1.5 vminpu=0.93 daily="RES_9_DU"
 
New "Load.BT_2395_M1" bus1="UC14029.1.4" phases=1 conn=delta model=2 kv=0.22 kw = 730.4772923114457 pf=0.92 status=variable vmaxpu=1.5 vminpu=0.93 daily="RES_2_DU" 
New "Load.BT_2395_M2" bus1="UC14029.1.4" phases=1 conn=delta model=3 kv=0.22 kw = 730.4772923114457 pf=0.92 status=variable vmaxpu=1.5 vminpu=0.93 daily="RES_2_DU"
 
New "Load.BT_8159_M1" bus1="UC15841.2.4" phases=1 conn=delta model=2 kv=0.22 kw = 9.287114255201327 pf=0.92 status=variable vmaxpu=1.5 vminpu=0.93 daily="RES_4_DU" 
New "Load.BT_8159_M2" bus1="UC15841.2.4" phases=1 conn=delta model=3 kv=0.22 kw = 9.287114255201327 pf=0.92 status=variable vmaxpu=1.5 vminpu=0.93 daily="RES_4_DU"
 
New "Load.BT_1678_M1" bus1="UC358.3.1.4" phases=2 conn=delta model=2 kv=0.38 kw = 952.0383348026394 pf=0.92 status=variable vmaxpu=1.5 vminpu=0.93 daily="COM_1_DU" 
New "Load.BT_1678_M2" bus1="UC358.3.1.4" phases=2 conn=delta model=3 kv=0.38 kw = 952.0383348026394 pf=0.92 status=variable vmaxpu=1.5 vminpu=0.93 daily="COM_1_DU"
 
New "Load.BT_474_M1" bus1="UC6892.2.4" phases=1 conn=delta model=2 kv=0.22 kw = 444.4162547629075 pf=0.92 status=variable vmaxpu=1.5 vminpu=0.93 daily="RES_2_DU" 
New "Load.BT_474_M2" bus1="UC6892.2.4" phases=1 conn=delta model=3 kv=0.22 kw = 444.4162547629075 pf=0.92 status=variable vmaxpu=1.5 vminpu=0.93 daily="RES_2_DU"
 
New "Load.BT_3034_M1" bus1="UC14783.1.2.3.4" phases=3 conn=delta model=2 kv=0.38 kw = 352.4680641223059 pf=0.92 status=variable vmaxpu=1.5 vminpu=0.93 daily="RES_2_DU" 
New "Load.BT_3034_M2" bus1="UC14783.1.2.3.4" phases=3 conn=delta model=3 kv=0.38 kw = 352.4680641223059 pf=0.92 status=variable vmaxpu=1.5 vminpu=0.93 daily="RES_2_DU"
 
New "Load.BT_7427_M1" bus1="UC15490.2.4" phases=1 conn=delta model=2 kv=0.22 kw = 776.4513876317465 pf=0.92 status=variable vmaxpu=1.5 vminpu=0.93 daily="RES_2_DU" 
New "Load.BT_7427_M2" bus1="UC15490.2.4" phases=1 conn=delta model=3 kv=0.22 kw = 776.4513876317465 pf=0.92 status=variable vmaxpu=1.5 vminpu=0.93 daily="RES_2_DU"
 
New "Load.BT_6397_M1" bus1="UC15492.1.2.3.4" phases=3 conn=delta model=2 kv=0.38 kw = 219.65401097477036 pf=0.92 status=variable vmaxpu=1.5 vminpu=0.93 daily="RES_2_DU" 
New "Load.BT_6397_M2" bus1="UC15492.1.2.3.4" phases=3 conn=delta model=3 kv=0.38 kw = 219.65401097477036 pf=0.92 status=variable vmaxpu=1.5 vminpu=0.93 daily="RES_2_DU"
 
New "Load.BT_855_M1" bus1="UC15495.1.2.3.4" phases=3 conn=delta model=2 kv=0.38 kw = 234.56016944412855 pf=0.92 status=variable vmaxpu=1.5 vminpu=0.93 daily="COM_1_DU" 
New "Load.BT_855_M2" bus1="UC15495.1.2.3.4" phases=3 conn=delta model=3 kv=0.38 kw = 234.56016944412855 pf=0.92 status=variable vmaxpu=1.5 vminpu=0.93 daily="COM_1_DU"
 
New "Load.BT_937_M1" bus1="UC15493.2.4" phases=1 conn=delta model=2 kv=0.22 kw = 781.5596204451132 pf=0.92 status=variable vmaxpu=1.5 vminpu=0.93 daily="RES_2_DU" 
New "Load.BT_937_M2" bus1="UC15493.2.4" phases=1 conn=delta model=3 kv=0.22 kw = 781.5596204451132 pf=0.92 status=variable vmaxpu=1.5 vminpu=0.93 daily="RES_2_DU"
 
New "Load.BT_7261_M1" bus1="UC15496.3.4" phases=1 conn=delta model=2 kv=0.38 kw = 45.974095320300776 pf=0.92 status=variable vmaxpu=1.5 vminpu=0.93 daily="RES_2_DU" 
New "Load.BT_7261_M2" bus1="UC15496.3.4" phases=1 conn=delta model=3 kv=0.38 kw = 45.974095320300776 pf=0.92 status=variable vmaxpu=1.5 vminpu=0.93 daily="RES_2_DU"
 
New "Load.BT_358_M1" bus1="UC14400.1.4" phases=1 conn=delta model=2 kv=0.22 kw = 521.0397469634088 pf=0.92 status=variable vmaxpu=1.5 vminpu=0.93 daily="RES_2_DU" 
New "Load.BT_358_M2" bus1="UC14400.1.4" phases=1 conn=delta model=3 kv=0.22 kw = 521.0397469634088 pf=0.92 status=variable vmaxpu=1.5 vminpu=0.93 daily="RES_2_DU"
 
New "Load.BT_490_M1" bus1="UC6077.1.4" phases=1 conn=delta model=2 kv=0.22 kw = 648.7455672975776 pf=0.92 status=variable vmaxpu=1.5 vminpu=0.93 daily="RES_2_DU" 
New "Load.BT_490_M2" bus1="UC6077.1.4" phases=1 conn=delta model=3 kv=0.22 kw = 648.7455672975776 pf=0.92 status=variable vmaxpu=1.5 vminpu=0.93 daily="RES_2_DU"
 
New "Load.BT_1862_M1" bus1="UC7595.2.3.4" phases=2 conn=delta model=2 kv=0.38 kw = 1869.7839228433438 pf=0.92 status=variable vmaxpu=1.5 vminpu=0.93 daily="RES_7_DU" 
New "Load.BT_1862_M2" bus1="UC7595.2.3.4" phases=2 conn=delta model=3 kv=0.38 kw = 1869.7839228433438 pf=0.92 status=variable vmaxpu=1.5 vminpu=0.93 daily="RES_7_DU"
 
New "Load.BT_1488_M1" bus1="UC10551.3.4" phases=1 conn=delta model=2 kv=0.22 kw = 693.7527683136797 pf=0.92 status=variable vmaxpu=1.5 vminpu=0.93 daily="RES_11_DU" 
New "Load.BT_1488_M2" bus1="UC10551.3.4" phases=1 conn=delta model=3 kv=0.22 kw = 693.7527683136797 pf=0.92 status=variable vmaxpu=1.5 vminpu=0.93 daily="RES_11_DU"
 
New "Load.BT_2624_M1" bus1="UC8865.3.4" phases=1 conn=delta model=2 kv=0.22 kw = 575.1928436478585 pf=0.92 status=variable vmaxpu=1.5 vminpu=0.93 daily="RES_13_DU" 
New "Load.BT_2624_M2" bus1="UC8865.3.4" phases=1 conn=delta model=3 kv=0.22 kw = 575.1928436478585 pf=0.92 status=variable vmaxpu=1.5 vminpu=0.93 daily="RES_13_DU"
 
New "Load.BT_1840_M1" bus1="UC5847.2.4" phases=1 conn=delta model=2 kv=0.22 kw = 1353.6816955421896 pf=0.92 status=variable vmaxpu=1.5 vminpu=0.93 daily="RES_2_DU" 
New "Load.BT_1840_M2" bus1="UC5847.2.4" phases=1 conn=delta model=3 kv=0.22 kw = 1353.6816955421896 pf=0.92 status=variable vmaxpu=1.5 vminpu=0.93 daily="RES_2_DU"
 
New "Load.BT_1452_M1" bus1="UC8287.2.4" phases=1 conn=delta model=2 kv=0.22 kw = 1065.8690052681725 pf=0.92 status=variable vmaxpu=1.5 vminpu=0.93 daily="COM_1_DU" 
New "Load.BT_1452_M2" bus1="UC8287.2.4" phases=1 conn=delta model=3 kv=0.22 kw = 1065.8690052681725 pf=0.92 status=variable vmaxpu=1.5 vminpu=0.93 daily="COM_1_DU"
 
New "Load.BT_3034_M1" bus1="UC14783.1.2.3.4" phases=3 conn=delta model=2 kv=0.38 kw = 475.065651643108 pf=0.92 status=variable vmaxpu=1.5 vminpu=0.93 daily="RES_2_DU" 
New "Load.BT_3034_M2" bus1="UC14783.1.2.3.4" phases=3 conn=delta model=3 kv=0.38 kw = 475.065651643108 pf=0.92 status=variable vmaxpu=1.5 vminpu=0.93 daily="RES_2_DU"
 
New "Load.BT_929_M1" bus1="UC8105.2.4" phases=1 conn=delta model=2 kv=0.22 kw = 94.8588920546108 pf=0.92 status=variable vmaxpu=1.5 vminpu=0.93 daily="COM_1_DU" 
New "Load.BT_929_M2" bus1="UC8105.2.4" phases=1 conn=delta model=3 kv=0.22 kw = 94.8588920546108 pf=0.92 status=variable vmaxpu=1.5 vminpu=0.93 daily="COM_1_DU"
 
New "Load.BT_3034_M1" bus1="UC14783.1.2.3.4" phases=3 conn=delta model=2 kv=0.38 kw = 1406.9978096630011 pf=0.92 status=variable vmaxpu=1.5 vminpu=0.93 daily="RES_4_DU" 
New "Load.BT_3034_M2" bus1="UC14783.1.2.3.4" phases=3 conn=delta model=3 kv=0.38 kw = 1406.9978096630011 pf=0.92 status=variable vmaxpu=1.5 vminpu=0.93 daily="RES_4_DU"
 
New "Load.BT_8197_M1" bus1="UC11184.3.4" phases=1 conn=delta model=2 kv=0.22 kw = 499.96707884058475 pf=0.92 status=variable vmaxpu=1.5 vminpu=0.93 daily="RES_11_DU" 
New "Load.BT_8197_M2" bus1="UC11184.3.4" phases=1 conn=delta model=3 kv=0.22 kw = 499.96707884058475 pf=0.92 status=variable vmaxpu=1.5 vminpu=0.93 daily="RES_11_DU"
 
New "Load.BT_3010_M1" bus1="UC14890.1.2.3.4" phases=3 conn=delta model=2 kv=0.38 kw = 616.6308681717411 pf=0.92 status=variable vmaxpu=1.5 vminpu=0.93 daily="RES_7_DU" 
New "Load.BT_3010_M2" bus1="UC14890.1.2.3.4" phases=3 conn=delta model=3 kv=0.38 kw = 616.6308681717411 pf=0.92 status=variable vmaxpu=1.5 vminpu=0.93 daily="RES_7_DU"
 
New "Load.BT_377_M1" bus1="UC15109.1.4" phases=1 conn=delta model=2 kv=0.22 kw = 745.7078658819792 pf=0.92 status=variable vmaxpu=1.5 vminpu=0.93 daily="RES_1_DU" 
New "Load.BT_377_M2" bus1="UC15109.1.4" phases=1 conn=delta model=3 kv=0.22 kw = 745.7078658819792 pf=0.92 status=variable vmaxpu=1.5 vminpu=0.93 daily="RES_1_DU"
 
New "Load.BT_1750_M1" bus1="UC10549.2.4" phases=1 conn=delta model=2 kv=0.22 kw = 1.724707128265651 pf=0.92 status=variable vmaxpu=1.5 vminpu=0.93 daily="COM_1_DU" 
New "Load.BT_1750_M2" bus1="UC10549.2.4" phases=1 conn=delta model=3 kv=0.22 kw = 1.724707128265651 pf=0.92 status=variable vmaxpu=1.5 vminpu=0.93 daily="COM_1_DU"
 
New "Load.BT_639_M1" bus1="UC15090.3.4" phases=1 conn=delta model=2 kv=0.22 kw = 1036.3605812875878 pf=0.92 status=variable vmaxpu=1.5 vminpu=0.93 daily="RES_3_DU" 
New "Load.BT_639_M2" bus1="UC15090.3.4" phases=1 conn=delta model=3 kv=0.22 kw = 1036.3605812875878 pf=0.92 status=variable vmaxpu=1.5 vminpu=0.93 daily="RES_3_DU"
 
New "Load.BT_2214_M1" bus1="UC11074.2.4" phases=1 conn=delta model=2 kv=0.22 kw = 207.27211625751758 pf=0.92 status=variable vmaxpu=1.5 vminpu=0.93 daily="RES_3_DU" 
New "Load.BT_2214_M2" bus1="UC11074.2.4" phases=1 conn=delta model=3 kv=0.22 kw = 207.27211625751758 pf=0.92 status=variable vmaxpu=1.5 vminpu=0.93 daily="RES_3_DU"
 
New "Load.BT_8198_M1" bus1="UC15673.2.3.4" phases=2 conn=delta model=2 kv=0.38 kw = 1620.97424252674 pf=0.92 status=variable vmaxpu=1.5 vminpu=0.93 daily="RES_3_DU" 
New "Load.BT_8198_M2" bus1="UC15673.2.3.4" phases=2 conn=delta model=3 kv=0.38 kw = 1620.97424252674 pf=0.92 status=variable vmaxpu=1.5 vminpu=0.93 daily="RES_3_DU"
 
New "Load.BT_6795_M1" bus1="UC14821.3.4" phases=1 conn=delta model=2 kv=0.22 kw = 467.69092899132164 pf=0.92 status=variable vmaxpu=1.5 vminpu=0.93 daily="RES_3_DU" 
New "Load.BT_6795_M2" bus1="UC14821.3.4" phases=1 conn=delta model=3 kv=0.22 kw = 467.69092899132164 pf=0.92 status=variable vmaxpu=1.5 vminpu=0.93 daily="RES_3_DU"
 
New "Load.BT_768_M1" bus1="UC12804.1.4" phases=1 conn=delta model=2 kv=0.22 kw = 473.0055986389503 pf=0.92 status=variable vmaxpu=1.5 vminpu=0.93 daily="RES_3_DU" 
New "Load.BT_768_M2" bus1="UC12804.1.4" phases=1 conn=delta model=3 kv=0.22 kw = 473.0055986389503 pf=0.92 status=variable vmaxpu=1.5 vminpu=0.93 daily="RES_3_DU"
 
New "Load.BT_539_M1" bus1="UC11814.2.4" phases=1 conn=delta model=2 kv=0.22 kw = 447.07983115996905 pf=0.92 status=variable vmaxpu=1.5 vminpu=0.93 daily="RES_6_DU" 
New "Load.BT_539_M2" bus1="UC11814.2.4" phases=1 conn=delta model=3 kv=0.22 kw = 447.07983115996905 pf=0.92 status=variable vmaxpu=1.5 vminpu=0.93 daily="RES_6_DU"
 
New "Load.BT_6846_M1" bus1="UC15821.1.2.3.4" phases=3 conn=delta model=2 kv=0.38 kw = 1701.0415268511288 pf=0.92 status=variable vmaxpu=1.5 vminpu=0.93 daily="RES_2_DU" 
New "Load.BT_6846_M2" bus1="UC15821.1.2.3.4" phases=3 conn=delta model=3 kv=0.38 kw = 1701.0415268511288 pf=0.92 status=variable vmaxpu=1.5 vminpu=0.93 daily="RES_2_DU"
 
New "Load.BT_826_M1" bus1="UC7495.2.4" phases=1 conn=delta model=2 kv=0.22 kw = 767.4946720782148 pf=0.92 status=variable vmaxpu=1.5 vminpu=0.93 daily="COM_1_DU" 
New "Load.BT_826_M2" bus1="UC7495.2.4" phases=1 conn=delta model=3 kv=0.22 kw = 767.4946720782148 pf=0.92 status=variable vmaxpu=1.5 vminpu=0.93 daily="COM_1_DU"
 
New "Load.BT_84_M1" bus1="UC5102.3.4" phases=1 conn=delta model=2 kv=0.22 kw = 404.7248997869194 pf=0.92 status=variable vmaxpu=1.5 vminpu=0.93 daily="RES_6_DU" 
New "Load.BT_84_M2" bus1="UC5102.3.4" phases=1 conn=delta model=3 kv=0.22 kw = 404.7248997869194 pf=0.92 status=variable vmaxpu=1.5 vminpu=0.93 daily="RES_6_DU"
 
New "Load.BT_2347_M1" bus1="UC1753.3.4" phases=1 conn=delta model=2 kv=0.22 kw = 2288.488300388305 pf=0.92 status=variable vmaxpu=1.5 vminpu=0.93 daily="RES_2_DU" 
New "Load.BT_2347_M2" bus1="UC1753.3.4" phases=1 conn=delta model=3 kv=0.22 kw = 2288.488300388305 pf=0.92 status=variable vmaxpu=1.5 vminpu=0.93 daily="RES_2_DU"
 
New "Load.BT_8197_M1" bus1="UC11184.3.4" phases=1 conn=delta model=2 kv=0.22 kw = 170.2370218184393 pf=0.92 status=variable vmaxpu=1.5 vminpu=0.93 daily="RES_9_DU" 
New "Load.BT_8197_M2" bus1="UC11184.3.4" phases=1 conn=delta model=3 kv=0.22 kw = 170.2370218184393 pf=0.92 status=variable vmaxpu=1.5 vminpu=0.93 daily="RES_9_DU"
 
New "Load.BT_2623_M1" bus1="UC15510.1.2.3.4" phases=3 conn=delta model=2 kv=0.38 kw = 11.725742833444347 pf=0.92 status=variable vmaxpu=1.5 vminpu=0.93 daily="COM_12_DU" 
New "Load.BT_2623_M2" bus1="UC15510.1.2.3.4" phases=3 conn=delta model=3 kv=0.38 kw = 11.725742833444347 pf=0.92 status=variable vmaxpu=1.5 vminpu=0.93 daily="COM_12_DU"
 
New "Load.BT_8426_M1" bus1="UC15793.1.2.3.4" phases=3 conn=delta model=2 kv=0.38 kw = 131.07774174818948 pf=0.92 status=variable vmaxpu=1.5 vminpu=0.93 daily="COM_1_DU" 
New "Load.BT_8426_M2" bus1="UC15793.1.2.3.4" phases=3 conn=delta model=3 kv=0.38 kw = 131.07774174818948 pf=0.92 status=variable vmaxpu=1.5 vminpu=0.93 daily="COM_1_DU"
 
New "Load.BT_7702_M1" bus1="UC15796.3.4" phases=1 conn=delta model=2 kv=0.22 kw = 199.22107972130337 pf=0.92 status=variable vmaxpu=1.5 vminpu=0.93 daily="RES_2_DU" 
New "Load.BT_7702_M2" bus1="UC15796.3.4" phases=1 conn=delta model=3 kv=0.22 kw = 199.22107972130337 pf=0.92 status=variable vmaxpu=1.5 vminpu=0.93 daily="RES_2_DU"
 
New "Load.BT_236_M1" bus1="UC15798.1.2.3.4" phases=3 conn=delta model=2 kv=0.38 kw = 88.7496689367461 pf=0.92 status=variable vmaxpu=1.5 vminpu=0.93 daily="RES_12_DU" 
New "Load.BT_236_M2" bus1="UC15798.1.2.3.4" phases=3 conn=delta model=3 kv=0.38 kw = 88.7496689367461 pf=0.92 status=variable vmaxpu=1.5 vminpu=0.93 daily="RES_12_DU"
 
New "Load.BT_146_M1" bus1="UC10578.1.4" phases=1 conn=delta model=2 kv=0.22 kw = 1120.544265817465 pf=0.92 status=variable vmaxpu=1.5 vminpu=0.93 daily="RES_7_DU" 
New "Load.BT_146_M2" bus1="UC10578.1.4" phases=1 conn=delta model=3 kv=0.22 kw = 1120.544265817465 pf=0.92 status=variable vmaxpu=1.5 vminpu=0.93 daily="RES_7_DU"
 
New "Load.BT_3019_M1" bus1="UC9738.1.4" phases=1 conn=delta model=2 kv=0.22 kw = 1040.048870382665 pf=0.92 status=variable vmaxpu=1.5 vminpu=0.93 daily="RES_6_DU" 
New "Load.BT_3019_M2" bus1="UC9738.1.4" phases=1 conn=delta model=3 kv=0.22 kw = 1040.048870382665 pf=0.92 status=variable vmaxpu=1.5 vminpu=0.93 daily="RES_6_DU"
 
New "Load.BT_2092_M1" bus1="UC6242.2.4" phases=1 conn=delta model=2 kv=0.22 kw = 240.08694222823738 pf=0.92 status=variable vmaxpu=1.5 vminpu=0.93 daily="RES_2_DU" 
New "Load.BT_2092_M2" bus1="UC6242.2.4" phases=1 conn=delta model=3 kv=0.22 kw = 240.08694222823738 pf=0.92 status=variable vmaxpu=1.5 vminpu=0.93 daily="RES_2_DU"
 
New "Load.BT_539_M1" bus1="UC11814.2.4" phases=1 conn=delta model=2 kv=0.22 kw = 138.62157490930056 pf=0.92 status=variable vmaxpu=1.5 vminpu=0.93 daily="RES_9_DU" 
New "Load.BT_539_M2" bus1="UC11814.2.4" phases=1 conn=delta model=3 kv=0.22 kw = 138.62157490930056 pf=0.92 status=variable vmaxpu=1.5 vminpu=0.93 daily="RES_9_DU"
 
New "Load.BT_1424_M1" bus1="UC6619.3.4" phases=1 conn=delta model=2 kv=0.22 kw = 561.9056094703428 pf=0.92 status=variable vmaxpu=1.5 vminpu=0.93 daily="RES_2_DU" 
New "Load.BT_1424_M2" bus1="UC6619.3.4" phases=1 conn=delta model=3 kv=0.22 kw = 561.9056094703428 pf=0.92 status=variable vmaxpu=1.5 vminpu=0.93 daily="RES_2_DU"
 
New "Load.BT_6443_M1" bus1="UC15805.1.4" phases=1 conn=delta model=2 kv=0.22 kw = 20.43293125346701 pf=0.92 status=variable vmaxpu=1.5 vminpu=0.93 daily="RES_2_DU" 
New "Load.BT_6443_M2" bus1="UC15805.1.4" phases=1 conn=delta model=3 kv=0.22 kw = 20.43293125346701 pf=0.92 status=variable vmaxpu=1.5 vminpu=0.93 daily="RES_2_DU"
 
New "Load.BT_8141_M1" bus1="UC15807.1.2.3.4" phases=3 conn=delta model=2 kv=0.38 kw = 33200.612219113784 pf=0.92 status=variable vmaxpu=1.5 vminpu=0.93 daily="COM_1_DU" 
New "Load.BT_8141_M2" bus1="UC15807.1.2.3.4" phases=3 conn=delta model=3 kv=0.38 kw = 33200.612219113784 pf=0.92 status=variable vmaxpu=1.5 vminpu=0.93 daily="COM_1_DU"
 
New "Load.BT_296_M1" bus1="UC14335.2.4" phases=1 conn=delta model=2 kv=0.22 kw = 587.4467735371766 pf=0.92 status=variable vmaxpu=1.5 vminpu=0.93 daily="RES_2_DU" 
New "Load.BT_296_M2" bus1="UC14335.2.4" phases=1 conn=delta model=3 kv=0.22 kw = 587.4467735371766 pf=0.92 status=variable vmaxpu=1.5 vminpu=0.93 daily="RES_2_DU"
 
New "Load.BT_121_M1" bus1="UC12650.2.3.4" phases=2 conn=delta model=2 kv=0.38 kw = 864.2841750500031 pf=0.92 status=variable vmaxpu=1.5 vminpu=0.93 daily="RES_11_DU" 
New "Load.BT_121_M2" bus1="UC12650.2.3.4" phases=2 conn=delta model=3 kv=0.38 kw = 864.2841750500031 pf=0.92 status=variable vmaxpu=1.5 vminpu=0.93 daily="RES_11_DU"
 
New "Load.BT_12_M1" bus1="UC10383.2.4" phases=1 conn=delta model=2 kv=0.22 kw = 415.8647247279017 pf=0.92 status=variable vmaxpu=1.5 vminpu=0.93 daily="RES_9_DU" 
New "Load.BT_12_M2" bus1="UC10383.2.4" phases=1 conn=delta model=3 kv=0.22 kw = 415.8647247279017 pf=0.92 status=variable vmaxpu=1.5 vminpu=0.93 daily="RES_9_DU"
 
New "Load.BT_8263_M1" bus1="UC14653.1.2.3.4" phases=3 conn=delta model=2 kv=0.38 kw = 1088.0535892471182 pf=0.92 status=variable vmaxpu=1.5 vminpu=0.93 daily="RES_2_DU" 
New "Load.BT_8263_M2" bus1="UC14653.1.2.3.4" phases=3 conn=delta model=3 kv=0.38 kw = 1088.0535892471182 pf=0.92 status=variable vmaxpu=1.5 vminpu=0.93 daily="RES_2_DU"
 
New "Load.BT_2343_M1" bus1="UC5977.2.4" phases=1 conn=delta model=2 kv=0.22 kw = 219.65401097477036 pf=0.92 status=variable vmaxpu=1.5 vminpu=0.93 daily="RES_2_DU" 
New "Load.BT_2343_M2" bus1="UC5977.2.4" phases=1 conn=delta model=3 kv=0.22 kw = 219.65401097477036 pf=0.92 status=variable vmaxpu=1.5 vminpu=0.93 daily="RES_2_DU"
 
New "Load.BT_3034_M1" bus1="UC14783.1.2.3.4" phases=3 conn=delta model=2 kv=0.38 kw = 658.9620329243111 pf=0.92 status=variable vmaxpu=1.5 vminpu=0.93 daily="RES_2_DU" 
New "Load.BT_3034_M2" bus1="UC14783.1.2.3.4" phases=3 conn=delta model=3 kv=0.38 kw = 658.9620329243111 pf=0.92 status=variable vmaxpu=1.5 vminpu=0.93 daily="RES_2_DU"
 
New "Load.BT_684_M1" bus1="UC6236.1.2.3.4" phases=3 conn=delta model=2 kv=0.38 kw = 344.94142565313024 pf=0.92 status=variable vmaxpu=1.5 vminpu=0.93 daily="COM_1_DU" 
New "Load.BT_684_M2" bus1="UC6236.1.2.3.4" phases=3 conn=delta model=3 kv=0.38 kw = 344.94142565313024 pf=0.92 status=variable vmaxpu=1.5 vminpu=0.93 daily="COM_1_DU"
 
New "Load.BT_7327_M1" bus1="UC13253.1.2.4" phases=2 conn=delta model=2 kv=0.38 kw = 449.5244875762742 pf=0.92 status=variable vmaxpu=1.5 vminpu=0.93 daily="RES_2_DU" 
New "Load.BT_7327_M2" bus1="UC13253.1.2.4" phases=2 conn=delta model=3 kv=0.38 kw = 449.5244875762742 pf=0.92 status=variable vmaxpu=1.5 vminpu=0.93 daily="RES_2_DU"
 
New "Load.BT_1829_M1" bus1="UC15079.3.4" phases=1 conn=delta model=2 kv=0.22 kw = 666.6227717874464 pf=0.92 status=variable vmaxpu=1.5 vminpu=0.93 daily="RES_11_DU" 
New "Load.BT_1829_M2" bus1="UC15079.3.4" phases=1 conn=delta model=3 kv=0.22 kw = 666.6227717874464 pf=0.92 status=variable vmaxpu=1.5 vminpu=0.93 daily="RES_11_DU"
 
New "Load.BT_1959_M1" bus1="UC2860.2.4" phases=1 conn=delta model=2 kv=0.22 kw = 750.9102235649126 pf=0.92 status=variable vmaxpu=1.5 vminpu=0.93 daily="RES_2_DU" 
New "Load.BT_1959_M2" bus1="UC2860.2.4" phases=1 conn=delta model=3 kv=0.22 kw = 750.9102235649126 pf=0.92 status=variable vmaxpu=1.5 vminpu=0.93 daily="RES_2_DU"
 
New "Load.BT_3034_M1" bus1="UC14783.1.2.3.4" phases=3 conn=delta model=2 kv=0.38 kw = 83.76357179135128 pf=0.92 status=variable vmaxpu=1.5 vminpu=0.93 daily="RES_5_DU" 
New "Load.BT_3034_M2" bus1="UC14783.1.2.3.4" phases=3 conn=delta model=3 kv=0.38 kw = 83.76357179135128 pf=0.92 status=variable vmaxpu=1.5 vminpu=0.93 daily="RES_5_DU"
 
New "Load.BT_901_M1" bus1="UC5377.3.4" phases=1 conn=delta model=2 kv=0.22 kw = 144.62088912425742 pf=0.92 status=variable vmaxpu=1.5 vminpu=0.93 daily="COM_5_DU" 
New "Load.BT_901_M2" bus1="UC5377.3.4" phases=1 conn=delta model=3 kv=0.22 kw = 144.62088912425742 pf=0.92 status=variable vmaxpu=1.5 vminpu=0.93 daily="COM_5_DU"
 
New "Load.BT_1124_M1" bus1="UC15362.3.1.4" phases=2 conn=delta model=2 kv=0.38 kw = 845.0324739729562 pf=0.92 status=variable vmaxpu=1.5 vminpu=0.93 daily="RES_3_DU" 
New "Load.BT_1124_M2" bus1="UC15362.3.1.4" phases=2 conn=delta model=3 kv=0.38 kw = 845.0324739729562 pf=0.92 status=variable vmaxpu=1.5 vminpu=0.93 daily="RES_3_DU"
 
New "Load.BT_1124_M1" bus1="UC15362.1.2.4" phases=2 conn=delta model=2 kv=0.38 kw = 1530.6248585170529 pf=0.92 status=variable vmaxpu=1.5 vminpu=0.93 daily="RES_3_DU" 
New "Load.BT_1124_M2" bus1="UC15362.1.2.4" phases=2 conn=delta model=3 kv=0.38 kw = 1530.6248585170529 pf=0.92 status=variable vmaxpu=1.5 vminpu=0.93 daily="RES_3_DU"
 
New "Load.BT_2344_M1" bus1="UC2835.3.4" phases=1 conn=delta model=2 kv=0.22 kw = 457.06158969606435 pf=0.92 status=variable vmaxpu=1.5 vminpu=0.93 daily="RES_3_DU" 
New "Load.BT_2344_M2" bus1="UC2835.3.4" phases=1 conn=delta model=3 kv=0.22 kw = 457.06158969606435 pf=0.92 status=variable vmaxpu=1.5 vminpu=0.93 daily="RES_3_DU"
 
New "Load.BT_7439_M1" bus1="UC16096.2.4" phases=1 conn=delta model=2 kv=0.22 kw = 26.521757770827573 pf=0.92 status=variable vmaxpu=1.5 vminpu=0.93 daily="RES_7_DU" 
New "Load.BT_7439_M2" bus1="UC16096.2.4" phases=1 conn=delta model=3 kv=0.22 kw = 26.521757770827573 pf=0.92 status=variable vmaxpu=1.5 vminpu=0.93 daily="RES_7_DU"
 
New "Load.BT_6954_M1" bus1="UC16099.3.4" phases=1 conn=delta model=2 kv=0.22 kw = 0.0 pf=0.92 status=variable vmaxpu=1.5 vminpu=0.93 daily="COM_1_DU" 
New "Load.BT_6954_M2" bus1="UC16099.3.4" phases=1 conn=delta model=3 kv=0.22 kw = 0.0 pf=0.92 status=variable vmaxpu=1.5 vminpu=0.93 daily="COM_1_DU"
 
New "Load.BT_1112_M1" bus1="UC8981.3.4" phases=1 conn=delta model=2 kv=0.22 kw = 245.32625938015505 pf=0.92 status=variable vmaxpu=1.5 vminpu=0.93 daily="RES_7_DU" 
New "Load.BT_1112_M2" bus1="UC8981.3.4" phases=1 conn=delta model=3 kv=0.22 kw = 245.32625938015505 pf=0.92 status=variable vmaxpu=1.5 vminpu=0.93 daily="RES_7_DU"
 
New "Load.BT_2626_M1" bus1="UC16100.3.4" phases=1 conn=delta model=2 kv=0.22 kw = 387.97088427689187 pf=0.92 status=variable vmaxpu=1.5 vminpu=0.93 daily="RES_3_DU" 
New "Load.BT_2626_M2" bus1="UC16100.3.4" phases=1 conn=delta model=3 kv=0.22 kw = 387.97088427689187 pf=0.92 status=variable vmaxpu=1.5 vminpu=0.93 daily="RES_3_DU"
 
New "Load.BT_1516_M1" bus1="UC16103.3.4" phases=1 conn=delta model=2 kv=0.22 kw = 568.6696522962661 pf=0.92 status=variable vmaxpu=1.5 vminpu=0.93 daily="RES_3_DU" 
New "Load.BT_1516_M2" bus1="UC16103.3.4" phases=1 conn=delta model=3 kv=0.22 kw = 568.6696522962661 pf=0.92 status=variable vmaxpu=1.5 vminpu=0.93 daily="RES_3_DU"
 
New "Load.BT_2623_M1" bus1="UC15510.1.2.4" phases=2 conn=delta model=2 kv=0.38 kw = 887.5498311539855 pf=0.92 status=variable vmaxpu=1.5 vminpu=0.93 daily="RES_3_DU" 
New "Load.BT_2623_M2" bus1="UC15510.1.2.4" phases=2 conn=delta model=3 kv=0.38 kw = 887.5498311539855 pf=0.92 status=variable vmaxpu=1.5 vminpu=0.93 daily="RES_3_DU"
 
New "Load.BT_1124_M1" bus1="UC15362.1.2.3.4" phases=3 conn=delta model=2 kv=0.38 kw = 0.0 pf=0.92 status=variable vmaxpu=1.5 vminpu=0.93 daily="COM_5_DU" 
New "Load.BT_1124_M2" bus1="UC15362.1.2.3.4" phases=3 conn=delta model=3 kv=0.38 kw = 0.0 pf=0.92 status=variable vmaxpu=1.5 vminpu=0.93 daily="COM_5_DU"
 
New "Load.BT_2214_M1" bus1="UC11074.3.4" phases=1 conn=delta model=2 kv=0.22 kw = 256.5854484462632 pf=0.92 status=variable vmaxpu=1.5 vminpu=0.93 daily="COM_5_DU" 
New "Load.BT_2214_M2" bus1="UC11074.3.4" phases=1 conn=delta model=3 kv=0.22 kw = 256.5854484462632 pf=0.92 status=variable vmaxpu=1.5 vminpu=0.93 daily="COM_5_DU"
 
New "Load.BT_8544_M1" bus1="UC16080.2.4" phases=1 conn=delta model=2 kv=0.22 kw = 358.04372990617225 pf=0.92 status=variable vmaxpu=1.5 vminpu=0.93 daily="RES_7_DU" 
New "Load.BT_8544_M2" bus1="UC16080.2.4" phases=1 conn=delta model=3 kv=0.22 kw = 358.04372990617225 pf=0.92 status=variable vmaxpu=1.5 vminpu=0.93 daily="RES_7_DU"
 
New "Load.BT_387_M1" bus1="UC15581.1.2.3.4" phases=3 conn=delta model=2 kv=0.38 kw = 425.17357181029246 pf=0.92 status=variable vmaxpu=1.5 vminpu=0.93 daily="RES_3_DU" 
New "Load.BT_387_M2" bus1="UC15581.1.2.3.4" phases=3 conn=delta model=3 kv=0.38 kw = 425.17357181029246 pf=0.92 status=variable vmaxpu=1.5 vminpu=0.93 daily="RES_3_DU"
 
New "Load.BT_1113_M1" bus1="UC6951.3.4" phases=1 conn=delta model=2 kv=0.22 kw = 33.15219721353447 pf=0.92 status=variable vmaxpu=1.5 vminpu=0.93 daily="RES_7_DU" 
New "Load.BT_1113_M2" bus1="UC6951.3.4" phases=1 conn=delta model=3 kv=0.22 kw = 33.15219721353447 pf=0.92 status=variable vmaxpu=1.5 vminpu=0.93 daily="RES_7_DU"
 
New "Load.BT_539_M1" bus1="UC11814.1.2.4" phases=2 conn=delta model=2 kv=0.38 kw = 1254.2620368403627 pf=0.92 status=variable vmaxpu=1.5 vminpu=0.93 daily="RES_3_DU" 
New "Load.BT_539_M2" bus1="UC11814.1.2.4" phases=2 conn=delta model=3 kv=0.38 kw = 1254.2620368403627 pf=0.92 status=variable vmaxpu=1.5 vminpu=0.93 daily="RES_3_DU"
 
New "Load.BT_1858_M1" bus1="UC5368.1.2.3.4" phases=3 conn=delta model=2 kv=0.38 kw = 329.5095181529766 pf=0.92 status=variable vmaxpu=1.5 vminpu=0.93 daily="RES_3_DU" 
New "Load.BT_1858_M2" bus1="UC5368.1.2.3.4" phases=3 conn=delta model=3 kv=0.38 kw = 329.5095181529766 pf=0.92 status=variable vmaxpu=1.5 vminpu=0.93 daily="RES_3_DU"
 
New "Load.BT_539_M1" bus1="UC11814.3.1.4" phases=2 conn=delta model=2 kv=0.38 kw = 185.652304395793 pf=0.92 status=variable vmaxpu=1.5 vminpu=0.93 daily="RES_7_DU" 
New "Load.BT_539_M2" bus1="UC11814.3.1.4" phases=2 conn=delta model=3 kv=0.38 kw = 185.652304395793 pf=0.92 status=variable vmaxpu=1.5 vminpu=0.93 daily="RES_7_DU"
 
New "Load.BT_7327_M1" bus1="UC13253.1.2.4" phases=2 conn=delta model=2 kv=0.38 kw = 696.2217238393538 pf=0.92 status=variable vmaxpu=1.5 vminpu=0.93 daily="RES_3_DU" 
New "Load.BT_7327_M2" bus1="UC13253.1.2.4" phases=2 conn=delta model=3 kv=0.38 kw = 696.2217238393538 pf=0.92 status=variable vmaxpu=1.5 vminpu=0.93 daily="RES_3_DU"
 
New "Load.BT_2623_M1" bus1="UC15510.3.1.4" phases=2 conn=delta model=2 kv=0.38 kw = 19.89131832812068 pf=0.92 status=variable vmaxpu=1.5 vminpu=0.93 daily="RES_7_DU" 
New "Load.BT_2623_M2" bus1="UC15510.3.1.4" phases=2 conn=delta model=3 kv=0.38 kw = 19.89131832812068 pf=0.92 status=variable vmaxpu=1.5 vminpu=0.93 daily="RES_7_DU"
 
New "Load.BT_2215_M1" bus1="UC12303.2.4" phases=1 conn=delta model=2 kv=0.22 kw = 185.652304395793 pf=0.92 status=variable vmaxpu=1.5 vminpu=0.93 daily="RES_7_DU" 
New "Load.BT_2215_M2" bus1="UC12303.2.4" phases=1 conn=delta model=3 kv=0.22 kw = 185.652304395793 pf=0.92 status=variable vmaxpu=1.5 vminpu=0.93 daily="RES_7_DU"
 
New "Load.BT_358_M1" bus1="UC12262.1.4" phases=1 conn=delta model=2 kv=0.22 kw = 6.630439442706893 pf=0.92 status=variable vmaxpu=1.5 vminpu=0.93 daily="RES_7_DU" 
New "Load.BT_358_M2" bus1="UC12262.1.4" phases=1 conn=delta model=3 kv=0.22 kw = 6.630439442706893 pf=0.92 status=variable vmaxpu=1.5 vminpu=0.93 daily="RES_7_DU"
 
New "Load.BT_555_M1" bus1="UC15769.2.4" phases=1 conn=delta model=2 kv=0.22 kw = 684.5031969911448 pf=0.92 status=variable vmaxpu=1.5 vminpu=0.93 daily="RES_2_DU" 
New "Load.BT_555_M2" bus1="UC15769.2.4" phases=1 conn=delta model=3 kv=0.22 kw = 684.5031969911448 pf=0.92 status=variable vmaxpu=1.5 vminpu=0.93 daily="RES_2_DU"
 
New "Load.BT_1430_M1" bus1="UC9154.3.4" phases=1 conn=delta model=2 kv=0.22 kw = 889.948878185076 pf=0.92 status=variable vmaxpu=1.5 vminpu=0.93 daily="COM_1_DU" 
New "Load.BT_1430_M2" bus1="UC9154.3.4" phases=1 conn=delta model=3 kv=0.22 kw = 889.948878185076 pf=0.92 status=variable vmaxpu=1.5 vminpu=0.93 daily="COM_1_DU"
 
New "Load.BT_2920_M1" bus1="UC15771.1.2.3.4" phases=3 conn=delta model=2 kv=0.38 kw = 1088.2901979356257 pf=0.92 status=variable vmaxpu=1.5 vminpu=0.93 daily="COM_1_DU" 
New "Load.BT_2920_M2" bus1="UC15771.1.2.3.4" phases=3 conn=delta model=3 kv=0.38 kw = 1088.2901979356257 pf=0.92 status=variable vmaxpu=1.5 vminpu=0.93 daily="COM_1_DU"
 
New "Load.BT_7655_M1" bus1="UC15774.1.4" phases=1 conn=delta model=2 kv=0.22 kw = 633.4208688574773 pf=0.92 status=variable vmaxpu=1.5 vminpu=0.93 daily="RES_2_DU" 
New "Load.BT_7655_M2" bus1="UC15774.1.4" phases=1 conn=delta model=3 kv=0.22 kw = 633.4208688574773 pf=0.92 status=variable vmaxpu=1.5 vminpu=0.93 daily="RES_2_DU"
 
New "Load.BT_1880_M1" bus1="UC5019.1.4" phases=1 conn=delta model=2 kv=0.22 kw = 786.6678532584799 pf=0.92 status=variable vmaxpu=1.5 vminpu=0.93 daily="RES_2_DU" 
New "Load.BT_1880_M2" bus1="UC5019.1.4" phases=1 conn=delta model=3 kv=0.22 kw = 786.6678532584799 pf=0.92 status=variable vmaxpu=1.5 vminpu=0.93 daily="RES_2_DU"
 
New "Load.BT_1209_M1" bus1="UC15445.3.4" phases=1 conn=delta model=2 kv=0.22 kw = 505.7150485233085 pf=0.92 status=variable vmaxpu=1.5 vminpu=0.93 daily="RES_2_DU" 
New "Load.BT_1209_M2" bus1="UC15445.3.4" phases=1 conn=delta model=3 kv=0.22 kw = 505.7150485233085 pf=0.92 status=variable vmaxpu=1.5 vminpu=0.93 daily="RES_2_DU"
 
New "Load.BT_2215_M1" bus1="UC7160.1.4" phases=1 conn=delta model=2 kv=0.22 kw = 193.1671983657529 pf=0.92 status=variable vmaxpu=1.5 vminpu=0.93 daily="COM_1_DU" 
New "Load.BT_2215_M2" bus1="UC7160.1.4" phases=1 conn=delta model=3 kv=0.22 kw = 193.1671983657529 pf=0.92 status=variable vmaxpu=1.5 vminpu=0.93 daily="COM_1_DU"
 
New "Load.BT_628_M1" bus1="UC7914.1.4" phases=1 conn=delta model=2 kv=0.22 kw = 67.26357800236039 pf=0.92 status=variable vmaxpu=1.5 vminpu=0.93 daily="COM_1_DU" 
New "Load.BT_628_M2" bus1="UC7914.1.4" phases=1 conn=delta model=3 kv=0.22 kw = 67.26357800236039 pf=0.92 status=variable vmaxpu=1.5 vminpu=0.93 daily="COM_1_DU"
 
New "Load.BT_1234_M1" bus1="UC15448.1.4" phases=1 conn=delta model=2 kv=0.22 kw = 25.541164066833765 pf=0.92 status=variable vmaxpu=1.5 vminpu=0.93 daily="RES_2_DU" 
New "Load.BT_1234_M2" bus1="UC15448.1.4" phases=1 conn=delta model=3 kv=0.22 kw = 25.541164066833765 pf=0.92 status=variable vmaxpu=1.5 vminpu=0.93 daily="RES_2_DU"
 
New "Load.BT_1380_M1" bus1="UC10064.3.4" phases=1 conn=delta model=2 kv=0.22 kw = 596.8599235771322 pf=0.92 status=variable vmaxpu=1.5 vminpu=0.93 daily="RES_11_DU" 
New "Load.BT_1380_M2" bus1="UC10064.3.4" phases=1 conn=delta model=3 kv=0.22 kw = 596.8599235771322 pf=0.92 status=variable vmaxpu=1.5 vminpu=0.93 daily="RES_11_DU"
 
New "Load.BT_785_M1" bus1="UC9638.3.4" phases=1 conn=delta model=2 kv=0.22 kw = 1370.7865181654029 pf=0.92 status=variable vmaxpu=1.5 vminpu=0.93 daily="RES_1_DU" 
New "Load.BT_785_M2" bus1="UC9638.3.4" phases=1 conn=delta model=3 kv=0.22 kw = 1370.7865181654029 pf=0.92 status=variable vmaxpu=1.5 vminpu=0.93 daily="RES_1_DU"
 
New "Load.BT_7701_M1" bus1="UC15452.1.2.3.4" phases=3 conn=delta model=2 kv=0.38 kw = 1752.1238549847963 pf=0.92 status=variable vmaxpu=1.5 vminpu=0.93 daily="RES_2_DU" 
New "Load.BT_7701_M2" bus1="UC15452.1.2.3.4" phases=3 conn=delta model=3 kv=0.38 kw = 1752.1238549847963 pf=0.92 status=variable vmaxpu=1.5 vminpu=0.93 daily="RES_2_DU"
 
New "Load.BT_387_M1" bus1="UC15581.1.4" phases=1 conn=delta model=2 kv=0.22 kw = 356.0828663911199 pf=0.92 status=variable vmaxpu=1.5 vminpu=0.93 daily="RES_3_DU" 
New "Load.BT_387_M2" bus1="UC15581.1.4" phases=1 conn=delta model=3 kv=0.22 kw = 356.0828663911199 pf=0.92 status=variable vmaxpu=1.5 vminpu=0.93 daily="RES_3_DU"
 
New "Load.BT_3034_M1" bus1="UC14783.1.2.3.4" phases=3 conn=delta model=2 kv=0.38 kw = 627.1310184201814 pf=0.92 status=variable vmaxpu=1.5 vminpu=0.93 daily="RES_3_DU" 
New "Load.BT_3034_M2" bus1="UC14783.1.2.3.4" phases=3 conn=delta model=3 kv=0.38 kw = 627.1310184201814 pf=0.92 status=variable vmaxpu=1.5 vminpu=0.93 daily="RES_3_DU"
 
New "Load.BT_1124_M1" bus1="UC8867.1.4" phases=1 conn=delta model=2 kv=0.22 kw = 1275.5207154308773 pf=0.92 status=variable vmaxpu=1.5 vminpu=0.93 daily="RES_3_DU" 
New "Load.BT_1124_M2" bus1="UC8867.1.4" phases=1 conn=delta model=3 kv=0.22 kw = 1275.5207154308773 pf=0.92 status=variable vmaxpu=1.5 vminpu=0.93 daily="RES_3_DU"
 
New "Load.BT_121_M1" bus1="UC12650.2.3.4" phases=2 conn=delta model=2 kv=0.38 kw = 537.0655948592583 pf=0.92 status=variable vmaxpu=1.5 vminpu=0.93 daily="RES_7_DU" 
New "Load.BT_121_M2" bus1="UC12650.2.3.4" phases=2 conn=delta model=3 kv=0.38 kw = 537.0655948592583 pf=0.92 status=variable vmaxpu=1.5 vminpu=0.93 daily="RES_7_DU"
 
New "Load.BT_239_M1" bus1="UC16074.1.2.3.4" phases=3 conn=delta model=2 kv=0.38 kw = 21008.889117076076 pf=0.92 status=variable vmaxpu=1.5 vminpu=0.93 daily="RES_3_DU" 
New "Load.BT_239_M2" bus1="UC16074.1.2.3.4" phases=3 conn=delta model=3 kv=0.38 kw = 21008.889117076076 pf=0.92 status=variable vmaxpu=1.5 vminpu=0.93 daily="RES_3_DU"
 
New "Load.BT_8152_M1" bus1="UC16078.1.2.4" phases=2 conn=delta model=2 kv=0.38 kw = 245.32625938015505 pf=0.92 status=variable vmaxpu=1.5 vminpu=0.93 daily="RES_7_DU" 
New "Load.BT_8152_M2" bus1="UC16078.1.2.4" phases=2 conn=delta model=3 kv=0.38 kw = 245.32625938015505 pf=0.92 status=variable vmaxpu=1.5 vminpu=0.93 daily="RES_7_DU"
 
New "Load.BT_8398_M1" bus1="UC15580.2.4" phases=1 conn=delta model=2 kv=0.22 kw = 495.498582896575 pf=0.92 status=variable vmaxpu=1.5 vminpu=0.93 daily="RES_2_DU" 
New "Load.BT_8398_M2" bus1="UC15580.2.4" phases=1 conn=delta model=3 kv=0.22 kw = 495.498582896575 pf=0.92 status=variable vmaxpu=1.5 vminpu=0.93 daily="RES_2_DU"
 
New "Load.BT_2466_M1" bus1="UC15707.1.4" phases=1 conn=delta model=2 kv=0.22 kw = 454.632720389641 pf=0.92 status=variable vmaxpu=1.5 vminpu=0.93 daily="RES_2_DU" 
New "Load.BT_2466_M2" bus1="UC15707.1.4" phases=1 conn=delta model=3 kv=0.22 kw = 454.632720389641 pf=0.92 status=variable vmaxpu=1.5 vminpu=0.93 daily="RES_2_DU"
 
New "Load.BT_2214_M1" bus1="UC11074.1.4" phases=1 conn=delta model=2 kv=0.22 kw = 1.724707128265651 pf=0.92 status=variable vmaxpu=1.5 vminpu=0.93 daily="COM_1_DU" 
New "Load.BT_2214_M2" bus1="UC11074.1.4" phases=1 conn=delta model=3 kv=0.22 kw = 1.724707128265651 pf=0.92 status=variable vmaxpu=1.5 vminpu=0.93 daily="COM_1_DU"
 
New "Load.BT_1112_M1" bus1="UC8981.2.4" phases=1 conn=delta model=2 kv=0.22 kw = 1016.5383298599838 pf=0.92 status=variable vmaxpu=1.5 vminpu=0.93 daily="RES_2_DU" 
New "Load.BT_1112_M2" bus1="UC8981.2.4" phases=1 conn=delta model=3 kv=0.22 kw = 1016.5383298599838 pf=0.92 status=variable vmaxpu=1.5 vminpu=0.93 daily="RES_2_DU"
 
New "Load.BT_6942_M1" bus1="UC15761.1.2.3.4" phases=3 conn=delta model=2 kv=0.38 kw = 1067.6206579936513 pf=0.92 status=variable vmaxpu=1.5 vminpu=0.93 daily="RES_2_DU" 
New "Load.BT_6942_M2" bus1="UC15761.1.2.3.4" phases=3 conn=delta model=3 kv=0.38 kw = 1067.6206579936513 pf=0.92 status=variable vmaxpu=1.5 vminpu=0.93 daily="RES_2_DU"
 
New "Load.BT_2085_M1" bus1="UC15760.1.2.3.4" phases=3 conn=delta model=2 kv=0.38 kw = 472.56975314478836 pf=0.92 status=variable vmaxpu=1.5 vminpu=0.93 daily="COM_1_DU" 
New "Load.BT_2085_M2" bus1="UC15760.1.2.3.4" phases=3 conn=delta model=3 kv=0.38 kw = 472.56975314478836 pf=0.92 status=variable vmaxpu=1.5 vminpu=0.93 daily="COM_1_DU"
 
New "Load.BT_702_M1" bus1="UC8051.1.2.4" phases=2 conn=delta model=2 kv=0.38 kw = 1062.5124251802845 pf=0.92 status=variable vmaxpu=1.5 vminpu=0.93 daily="RES_2_DU" 
New "Load.BT_702_M2" bus1="UC8051.1.2.4" phases=2 conn=delta model=3 kv=0.38 kw = 1062.5124251802845 pf=0.92 status=variable vmaxpu=1.5 vminpu=0.93 daily="RES_2_DU"
 
New "Load.BT_7425_M1" bus1="UC15763.3.4" phases=1 conn=delta model=2 kv=0.22 kw = 0.0 pf=0.92 status=variable vmaxpu=1.5 vminpu=0.93 daily="RES_2_DU" 
New "Load.BT_7425_M2" bus1="UC15763.3.4" phases=1 conn=delta model=3 kv=0.22 kw = 0.0 pf=0.92 status=variable vmaxpu=1.5 vminpu=0.93 daily="RES_2_DU"
 
New "Load.BT_854_M1" bus1="UC13201.2.4" phases=1 conn=delta model=2 kv=0.22 kw = 807.1007845119469 pf=0.92 status=variable vmaxpu=1.5 vminpu=0.93 daily="RES_2_DU" 
New "Load.BT_854_M2" bus1="UC13201.2.4" phases=1 conn=delta model=3 kv=0.22 kw = 807.1007845119469 pf=0.92 status=variable vmaxpu=1.5 vminpu=0.93 daily="RES_2_DU"
 
New "Load.BT_854_M1" bus1="UC13201.3.4" phases=1 conn=delta model=2 kv=0.22 kw = 1266.8417377149547 pf=0.92 status=variable vmaxpu=1.5 vminpu=0.93 daily="RES_2_DU" 
New "Load.BT_854_M2" bus1="UC13201.3.4" phases=1 conn=delta model=3 kv=0.22 kw = 1266.8417377149547 pf=0.92 status=variable vmaxpu=1.5 vminpu=0.93 daily="RES_2_DU"
 
New "Load.BT_3034_M1" bus1="UC14783.1.2.3.4" phases=3 conn=delta model=2 kv=0.38 kw = 720.882764839913 pf=0.92 status=variable vmaxpu=1.5 vminpu=0.93 daily="RES_11_DU" 
...